Test_PropertyDump.txt
NumBuses= 2
NumNodes= 8
NumDevices= 2
BusList:
  b1           (4 Nodes) 1 2 3 4
  b2           (4 Nodes) 1 2 3 4
DeviceList:
  source      
  line1       
NodeToBus Array:
   1  1 (=b1.1)
   2  1 (=b1.2)
   3  1 (=b1.3)
   4  1 (=b1.4)
   5  2 (=b2.1)
   6  2 (=b2.2)
   7  2 (=b2.3)
   8  2 (=b2.4)

New "Vsource.source"
! ENABLED
! NPhases = 3
! Nconds = 3
! Nterms = 2
! Yorder = 6
! NodeRef = "1 2 3 0 0 0 "
! Terminal Status: [C C C C C C ]
! Terminal Bus Ref: [1 1 1 1 1 1 ]

! YPrim (G matrix)
!    1668079.689 |   152232.0323 |   152232.0323 |  -1668079.689 |  -152232.0323 |  -152232.0323 |
!    152232.0323 |   1668079.689 |   152232.0323 |  -152232.0323 |  -1668079.689 |  -152232.0323 |
!    152232.0323 |   152232.0323 |   1668079.689 |  -152232.0323 |  -152232.0323 |  -1668079.689 |
!   -1668079.689 |  -152232.0323 |  -152232.0323 |   1668079.689 |   152232.0323 |   152232.0323 |
!   -152232.0323 |  -1668079.689 |  -152232.0323 |   152232.0323 |   1668079.689 |   152232.0323 |
!   -152232.0323 |  -152232.0323 |  -1668079.689 |   152232.0323 |   152232.0323 |   1668079.689 |
! YPrim (B Matrix) = 
!   -6014804.171 |    48586.4553 |    48586.4553 |   6014804.171 |   -48586.4553 |   -48586.4553 |
!     48586.4553 |  -6014804.171 |    48586.4553 |   -48586.4553 |   6014804.171 |   -48586.4553 |
!     48586.4553 |    48586.4553 |  -6014804.171 |   -48586.4553 |   -48586.4553 |   6014804.171 |
!    6014804.171 |   -48586.4553 |   -48586.4553 |  -6014804.171 |    48586.4553 |    48586.4553 |
!    -48586.4553 |   6014804.171 |   -48586.4553 |    48586.4553 |  -6014804.171 |    48586.4553 |
!    -48586.4553 |   -48586.4553 |   6014804.171 |    48586.4553 |    48586.4553 |  -6014804.171 |
! VARIABLES
~ bus1=b1
~ basekv=0.4
~ pu=1
~ angle=0
~ frequency=60
~ phases=3
~ MVAsc3=1000000
~ MVAsc1=1000000
~ x1r1=4
~ x0r0=3
~ Isc3=1443375672.97406
~ Isc1=1443375672.97406
~ R1=3.88057000058133E-8
~ X1=1.55222800023253E-7
~ R0=5.0695960396764E-8
~ X0=1.52087881190292E-7
~ ScanType=Positive
~ Sequence=Positive
~ bus2=b1.0.0.0
~ Z1=[3.880570000581328E-8, 1.5522280002325312E-7]
~ Z0=[5.069596039676399E-8, 1.5208788119029196E-7]
~ Z2=[3.880570000581328E-8, 1.5522280002325312E-7]
~ puZ1=[4.8507125007266592E-8, 1.9402850002906637E-7]
~ puZ0=[6.3369950495954978E-8, 1.9010985148786492E-7]
~ puZ2=[4.8507125007266592E-8, 1.9402850002906637E-7]
~ baseMVA=0.2
~ Yearly=
~ Daily=
~ Duty=
~ Model=Thevenin
~ puZideal=[9.9999999999999995E-7, 0.001]
~ spectrum=defaultvsource
~ basefreq=60
~ enabled=Yes
~ like=

BaseFrequency=60.0
VMag=230.94
Z Matrix=
4.276912E-8 +j 1.5417783E-7 
3.9634201E-9 +j -1.0449729E-9 4.276912E-8 +j 1.5417783E-7 
3.9634201E-9 +j -1.0449729E-9 3.9634201E-9 +j -1.0449729E-9 4.276912E-8 +j 1.5417783E-7 

New "Line.line1"
! ENABLED
! NPhases = 4
! Nconds = 4
! Nterms = 2
! Yorder = 8
! NodeRef = "1 2 3 4 5 6 7 8 "
! Terminal Status: [C C C C C C C C ]
! Terminal Bus Ref: [1 1 1 1 2 2 2 2 ]

! YPrim (G matrix)
!    7.309162407 |    -3.9993728 |  -1.355177565 |  -1.043718895 |  -7.309162407 |     3.9993728 |   1.355177565 |   1.043718895 |
!     -3.9993728 |       8.45703 |   -2.61544394 |  -1.355177565 |     3.9993728 |      -8.45703 |    2.61544394 |   1.355177565 |
!   -1.355177565 |   -2.61544394 |       8.45703 |    -3.9993728 |   1.355177565 |    2.61544394 |      -8.45703 |     3.9993728 |
!   -1.043718895 |  -1.355177565 |    -3.9993728 |   7.309162407 |   1.043718895 |   1.355177565 |     3.9993728 |  -7.309162407 |
!   -7.309162407 |     3.9993728 |   1.355177565 |   1.043718895 |   7.309162407 |    -3.9993728 |  -1.355177565 |  -1.043718895 |
!      3.9993728 |      -8.45703 |    2.61544394 |   1.355177565 |    -3.9993728 |       8.45703 |   -2.61544394 |  -1.355177565 |
!    1.355177565 |    2.61544394 |      -8.45703 |     3.9993728 |  -1.355177565 |   -2.61544394 |       8.45703 |    -3.9993728 |
!    1.043718895 |   1.355177565 |     3.9993728 |  -7.309162407 |  -1.043718895 |  -1.355177565 |    -3.9993728 |   7.309162407 |
! YPrim (B Matrix) = 
!   -17.20425751 |   6.059360221 |   3.607092621 |   3.153033681 |   17.20425751 |  -6.059360221 |  -3.607092621 |  -3.153033681 |
!    6.059360221 |  -18.16964473 |   4.709838783 |   3.607092621 |  -6.059360221 |   18.16964473 |  -4.709838783 |  -3.607092621 |
!    3.607092621 |   4.709838783 |  -18.16964473 |   6.059360221 |  -3.607092621 |  -4.709838783 |   18.16964473 |  -6.059360221 |
!    3.153033681 |   3.607092621 |   6.059360221 |  -17.20425751 |  -3.153033681 |  -3.607092621 |  -6.059360221 |   17.20425751 |
!    17.20425751 |  -6.059360221 |  -3.607092621 |  -3.153033681 |  -17.20425751 |   6.059360221 |   3.607092621 |   3.153033681 |
!   -6.059360221 |   18.16964473 |  -4.709838783 |  -3.607092621 |   6.059360221 |  -18.16964473 |   4.709838783 |   3.607092621 |
!   -3.607092621 |  -4.709838783 |   18.16964473 |  -6.059360221 |   3.607092621 |   4.709838783 |  -18.16964473 |   6.059360221 |
!   -3.153033681 |  -3.607092621 |  -6.059360221 |   17.20425751 |   3.153033681 |   3.607092621 |   6.059360221 |  -17.20425751 |
~ bus1=b1.1.2.3
~ bus2=b2.1.2.3
~ linecode=zabcn
! OPTIONS
! NumNodes = 8
Set Mode=Snap
Set ControlMode=Static
Set Random=Gaussian
Set hour=0
Set sec=0
Set year=0
Set frequency=60
Set stepsize=0.001
Set number=100
Set circuit=test
Set editor=open -t
Set tolerance=0.0001
Set maxiterations=15
Set miniterations=2
Set loadmodel=PowerFlow
Set loadmult=1
Set Normvminpu=0.94999999999999996
Set Normvmaxpu=1.05
Set Emergvminpu=0.90000000000000002
Set Emergvmaxpu=1.0800000000000001
Set %mean=82.58
Set %stddev=15.31
Set LDCurve=
Set %growth=2.5
Set genkw=1000
Set genpf=1
Set capkvar=600
Set addtype=generator
Set allowduplicates=No
Set zonelock=No
Set ueweight=    1.00
Set lossweight=    1.00
Set ueregs=[10]
Set lossregs=[13]
Set voltagebases=(      0.40)
Set algorithm=Normal
Set Trapezoidal=No
Set genmult=1
Set Basefrequency=60
Set harmonics=(ALL)
Set maxcontroliter=10

System Y Matrix (Lower Triangle by Columns)

  Row  Col               G               B

[   1,   1] =     1.6681E6 + j   -6.0148E6
[   2,   1] =     1.5223E5 + j       48593
[   3,   1] =     1.5223E5 + j       48590
[   4,   1] =      -1.0437 + j       3.153
[   5,   1] =      -7.3092 + j      17.204
[   6,   1] =       3.9994 + j     -6.0594
[   7,   1] =       1.3552 + j     -3.6071
[   8,   1] =       1.0437 + j      -3.153
[   1,   2] =     1.5223E5 + j       48593
[   2,   2] =     1.6681E6 + j   -6.0148E6
[   3,   2] =     1.5223E5 + j       48591
[   4,   2] =      -1.3552 + j      3.6071
[   5,   2] =       3.9994 + j     -6.0594
[   6,   2] =       -8.457 + j       18.17
[   7,   2] =       2.6154 + j     -4.7098
[   8,   2] =       1.3552 + j     -3.6071
[   1,   3] =     1.5223E5 + j       48590
[   2,   3] =     1.5223E5 + j       48591
[   3,   3] =     1.6681E6 + j   -6.0148E6
[   4,   3] =      -3.9994 + j      6.0594
[   5,   3] =       1.3552 + j     -3.6071
[   6,   3] =       2.6154 + j     -4.7098
[   7,   3] =       -8.457 + j       18.17
[   8,   3] =       3.9994 + j     -6.0594
[   1,   4] =      -1.0437 + j       3.153
[   2,   4] =      -1.3552 + j      3.6071
[   3,   4] =      -3.9994 + j      6.0594
[   4,   4] =       7.3092 + j     -17.204
[   5,   4] =       1.0437 + j      -3.153
[   6,   4] =       1.3552 + j     -3.6071
[   7,   4] =       3.9994 + j     -6.0594
[   8,   4] =      -7.3092 + j      17.204
[   1,   5] =      -7.3092 + j      17.204
[   2,   5] =       3.9994 + j     -6.0594
[   3,   5] =       1.3552 + j     -3.6071
[   4,   5] =       1.0437 + j      -3.153
[   5,   5] =       7.3092 + j     -17.204
[   6,   5] =      -3.9994 + j      6.0594
[   7,   5] =      -1.3552 + j      3.6071
[   8,   5] =      -1.0437 + j       3.153
[   1,   6] =       3.9994 + j     -6.0594
[   2,   6] =       -8.457 + j       18.17
[   3,   6] =       2.6154 + j     -4.7098
[   4,   6] =       1.3552 + j     -3.6071
[   5,   6] =      -3.9994 + j      6.0594
[   6,   6] =        8.457 + j      -18.17
[   7,   6] =      -2.6154 + j      4.7098
[   8,   6] =      -1.3552 + j      3.6071
[   1,   7] =       1.3552 + j     -3.6071
[   2,   7] =       2.6154 + j     -4.7098
[   3,   7] =       -8.457 + j       18.17
[   4,   7] =       3.9994 + j     -6.0594
[   5,   7] =      -1.3552 + j      3.6071
[   6,   7] =      -2.6154 + j      4.7098
[   7,   7] =        8.457 + j      -18.17
[   8,   7] =      -3.9994 + j      6.0594
[   1,   8] =       1.0437 + j      -3.153
[   2,   8] =       1.3552 + j     -3.6071
[   3,   8] =       3.9994 + j     -6.0594
[   4,   8] =      -7.3092 + j      17.204
[   5,   8] =      -1.0437 + j       3.153
[   6,   8] =      -1.3552 + j      3.6071
[   7,   8] =      -3.9994 + j      6.0594
[   8,   8] =       7.3092 + j     -17.204
